<?xml version="1.0" encoding="UTF-8"?>

<!-- generated on 2025-10-21 14:09:14.012634 by randomTrips.py UNKNOWN
<configuration>
    <net-file value="/home/ciot/wireless_simulator/scenario/Myeongdong/sumo/osm.net.xml.gz"/>
    <output-trip-file value="/home/ciot/wireless_simulator/scenario/Myeongdong/sumo/osm.passenger.trips.xml"/>
    <route-file value="/home/ciot/wireless_simulator/scenario/Myeongdong/sumo/osm.passenger.rou.xml"/>
    <prefix value="veh"/>
    <trip-attributes value="departLane=&quot;best&quot;"/>
    <fringe-start-attributes value="departSpeed=&quot;max&quot;"/>
    <vehicle-class value="passenger"/>
    <lanes value="True"/>
    <fringe-factor value="5"/>
    <allow-fringe.min-length value="1000.0"/>
    <edge-permission value="passenger"/>
    <via-edge-types value="highway.motorway,highway.motorway_link,highway.trunk_link,highway.primary_link,highway.secondary_link,highway.tertiary_link"/>
    <min-distance value="1000.0"/>
    <min-distance.fringe value="10.0"/>
    <remove-loops value="True"/>
    <end value="1200.0"/>
    <insertion-density value="20.0"/>
</configuration>
-->

<routes xmlns:xsi="http://www.w3.org/2001/XMLSchema-instance" xsi:noNamespaceSchemaLocation="http://sumo.dlr.de/xsd/routes_file.xsd">
    <vType id="veh_passenger" vClass="passenger"/>
    <trip id="veh0" depart="0.00" from="344663892#1" to="-176728955#4" departLane="best" type="veh_passenger"/>
    <trip id="veh1" depart="1.22" from="-767524334#2" to="-480233462#1" departLane="best" type="veh_passenger" departSpeed="max"/>
    <trip id="veh2" depart="2.43" from="420361206#0" to="379943755#1" departLane="best" type="veh_passenger"/>
    <trip id="veh3" depart="3.65" from="769116603#1" to="-233651275" departLane="best" type="veh_passenger"/>
    <trip id="veh4" depart="4.87" from="-156570776" to="-420361205#3" departLane="best" type="veh_passenger"/>
    <trip id="veh5" depart="6.08" from="-383097722#0" to="272232099#0" departLane="best" type="veh_passenger"/>
    <trip id="veh6" depart="7.30" from="517641017#4" to="-1125773040" departLane="best" type="veh_passenger"/>
    <trip id="veh7" depart="8.52" from="1199229108" to="-381226322#2" departLane="best" type="veh_passenger"/>
    <trip id="veh8" depart="9.73" from="908622900#0" to="170403818" departLane="best" type="veh_passenger"/>
    <trip id="veh9" depart="10.95" from="-228795477#3" to="-233651327#5" departLane="best" type="veh_passenger"/>
    <trip id="veh10" depart="12.17" from="517641017#0" to="413953596#2" departLane="best" type="veh_passenger"/>
    <trip id="veh11" depart="13.39" from="619147729#2" to="320463245#4" departLane="best" type="veh_passenger"/>
    <trip id="veh12" depart="14.60" from="656122981#1" to="243542155#1" departLane="best" type="veh_passenger"/>
    <trip id="veh13" depart="15.82" from="381456462#1" to="-198691067#1" departLane="best" type="veh_passenger"/>
    <trip id="veh14" depart="17.04" from="-419752069" to="117914842#0" departLane="best" type="veh_passenger"/>
    <trip id="veh15" depart="18.25" from="-228797638" to="1084408278#0" departLane="best" type="veh_passenger"/>
    <trip id="veh16" depart="19.47" from="-651817398#4" to="785130598#5" departLane="best" type="veh_passenger" departSpeed="max"/>
    <trip id="veh17" depart="20.69" from="350127794#1" to="315658897#3" departLane="best" type="veh_passenger"/>
    <trip id="veh18" depart="21.90" from="-333725870" to="413953596#0" departLane="best" type="veh_passenger"/>
    <trip id="veh19" depart="23.12" from="-318747850#1" to="184083199#14" departLane="best" type="veh_passenger"/>
    <trip id="veh20" depart="24.34" from="919985574#0" to="347237859#4" departLane="best" type="veh_passenger" departSpeed="max"/>
    <trip id="veh21" depart="25.55" from="-420361201" to="-184444067#0" departLane="best" type="veh_passenger"/>
    <trip id="veh22" depart="26.77" from="-381456459" to="821107999#0" departLane="best" type="veh_passenger"/>
    <trip id="veh23" depart="27.99" from="732213463#0" to="1207481552#0" departLane="best" type="veh_passenger" departSpeed="max"/>
    <trip id="veh24" depart="29.20" from="233651338#1" to="772279128#5" departLane="best" type="veh_passenger"/>
    <trip id="veh25" depart="30.42" from="-233651294#1" to="333557072#5" departLane="best" type="veh_passenger" departSpeed="max"/>
    <trip id="veh26" depart="31.64" from="919985574#1" to="228795465" departLane="best" type="veh_passenger"/>
    <trip id="veh27" depart="32.86" from="908646367#8" to="620634303#2" departLane="best" type="veh_passenger"/>
    <trip id="veh28" depart="34.07" from="-651817398#4" to="350127794#0" departLane="best" type="veh_passenger" departSpeed="max"/>
    <trip id="veh29" depart="35.29" from="732213463#0" to="1002205279" departLane="best" type="veh_passenger" departSpeed="max"/>
    <trip id="veh30" depart="36.51" from="218923160#0" to="-381456463#2" departLane="best" type="veh_passenger"/>
    <trip id="veh31" depart="37.72" from="781985788#0" to="656122993" departLane="best" type="veh_passenger"/>
    <trip id="veh32" depart="38.94" from="468186048" to="228795481#0" departLane="best" type="veh_passenger" departSpeed="max"/>
    <trip id="veh33" depart="40.16" from="480233462#0" to="228795468#0" departLane="best" type="veh_passenger" departSpeed="max"/>
    <trip id="veh34" depart="41.37" from="-1002205265" to="1283636934#1" departLane="best" type="veh_passenger" departSpeed="max"/>
    <trip id="veh35" depart="42.59" from="732213463#2" to="619147732#0" departLane="best" type="veh_passenger"/>
    <trip id="veh36" depart="43.81" from="732213463#0" to="892932178" departLane="best" type="veh_passenger" departSpeed="max"/>
    <trip id="veh37" depart="45.02" from="-223418965#9" to="218924602#7" departLane="best" type="veh_passenger"/>
    <trip id="veh38" depart="46.24" from="198564928#10" to="-464461048#1" departLane="best" type="veh_passenger"/>
    <trip id="veh39" depart="47.46" from="220027347#0" to="413953596#2" departLane="best" type="veh_passenger"/>
    <trip id="veh40" depart="48.67" from="198691055#0" to="220027347#3" departLane="best" type="veh_passenger"/>
    <trip id="veh41" depart="49.89" from="620634303#2" to="-228795467#2" departLane="best" type="veh_passenger"/>
    <trip id="veh42" depart="51.11" from="-381456466#0" to="-318747850#3" departLane="best" type="veh_passenger"/>
    <trip id="veh43" depart="52.32" from="419752056" to="379943276#0" departLane="best" type="veh_passenger" departSpeed="max"/>
    <trip id="veh44" depart="53.54" from="184083199#12" to="176728952#0" departLane="best" type="veh_passenger"/>
    <trip id="veh45" depart="54.76" from="-464461052#1" to="782892488#0" departLane="best" type="veh_passenger" departSpeed="max"/>
    <trip id="veh46" depart="55.98" from="620604518#0" to="-381456424#8" departLane="best" type="veh_passenger"/>
    <trip id="veh47" depart="57.19" from="228795474#0" to="383097721" departLane="best" type="veh_passenger"/>
    <trip id="veh48" depart="58.41" from="-315658896#6" to="1199229108" departLane="best" type="veh_passenger"/>
    <trip id="veh49" depart="59.63" from="-198691063#1" to="245063636#2" departLane="best" type="veh_passenger"/>
    <trip id="veh50" depart="60.84" from="-221975143#1" to="-383097722#0" departLane="best" type="veh_passenger"/>
    <trip id="veh51" depart="62.06" from="244221644#1" to="379943755#1" departLane="best" type="veh_passenger"/>
    <trip id="veh52" depart="63.28" from="769110715#0" to="-777422408" departLane="best" type="veh_passenger" departSpeed="max"/>
    <trip id="veh53" depart="64.49" from="-381456445" to="383097721" departLane="best" type="veh_passenger" departSpeed="max"/>
    <trip id="veh54" depart="65.71" from="378453707#7" to="1205679418#2" departLane="best" type="veh_passenger"/>
    <trip id="veh55" depart="66.93" from="-218923156#4" to="-464461049#3" departLane="best" type="veh_passenger"/>
    <trip id="veh56" depart="68.14" from="619147732#0" to="381456463#1" departLane="best" type="veh_passenger"/>
    <trip id="veh57" depart="69.36" from="273640070#0" to="913565824#5" departLane="best" type="veh_passenger"/>
    <trip id="veh58" depart="70.58" from="360113081#0" to="-1128455670#0" departLane="best" type="veh_passenger"/>
    <trip id="veh59" depart="71.79" from="555478018#0" to="1205679418#14" departLane="best" type="veh_passenger"/>
    <trip id="veh60" depart="73.01" from="-766904027#11" to="315658896#1" departLane="best" type="veh_passenger" departSpeed="max"/>
    <trip id="veh61" depart="74.23" from="619147739#0" to="-233651317#1" departLane="best" type="veh_passenger" departSpeed="max"/>
    <trip id="veh62" depart="75.45" from="198564928#11" to="1084408277#1" departLane="best" type="veh_passenger"/>
    <trip id="veh63" depart="76.66" from="-219053199#1" to="767524334#0" departLane="best" type="veh_passenger"/>
    <trip id="veh64" depart="77.88" from="619147732#1" to="244221646#3" departLane="best" type="veh_passenger"/>
    <trip id="veh65" depart="79.10" from="-273640078#2" to="-315658897#1" departLane="best" type="veh_passenger" departSpeed="max"/>
    <trip id="veh66" depart="80.31" from="-821107999#1" to="772279128#5" departLane="best" type="veh_passenger" departSpeed="max"/>
    <trip id="veh67" depart="81.53" from="517641011#0" to="620634303#2" departLane="best" type="veh_passenger" departSpeed="max"/>
    <trip id="veh68" depart="82.75" from="-464461052#1" to="-233652296#1" departLane="best" type="veh_passenger" departSpeed="max"/>
    <trip id="veh69" depart="83.96" from="480233462#0" to="767524334#0" departLane="best" type="veh_passenger" departSpeed="max"/>
    <trip id="veh70" depart="85.18" from="184083199#16" to="322977650" departLane="best" type="veh_passenger"/>
    <trip id="veh71" depart="86.40" from="-315658896#6" to="782892489#4" departLane="best" type="veh_passenger"/>
    <trip id="veh72" depart="87.61" from="517641011#0" to="651696631#0" departLane="best" type="veh_passenger" departSpeed="max"/>
    <trip id="veh73" depart="88.83" from="517641017#4" to="1006350108#0" departLane="best" type="veh_passenger"/>
    <trip id="veh74" depart="90.05" from="516417601#0" to="-243542156#1" departLane="best" type="veh_passenger" departSpeed="max"/>
    <trip id="veh75" depart="91.26" from="717851360#0" to="620634303#2" departLane="best" type="veh_passenger" departSpeed="max"/>
    <trip id="veh76" depart="92.48" from="-383097723#0" to="616037664#0" departLane="best" type="veh_passenger"/>
    <trip id="veh77" depart="93.70" from="198691078#0" to="1207199730#2" departLane="best" type="veh_passenger"/>
    <trip id="veh78" depart="94.91" from="517641011#0" to="-581906883#0" departLane="best" type="veh_passenger" departSpeed="max"/>
    <trip id="veh79" depart="96.13" from="899373686#0" to="-273638833#5" departLane="best" type="veh_passenger"/>
    <trip id="veh80" depart="97.35" from="273028084#9" to="219747865#0" departLane="best" type="veh_passenger"/>
    <trip id="veh81" depart="98.57" from="184083181#0" to="243542154#9" departLane="best" type="veh_passenger" departSpeed="max"/>
    <trip id="veh82" depart="99.78" from="-1002205265" to="782892488#4" departLane="best" type="veh_passenger" departSpeed="max"/>
    <trip id="veh83" depart="101.00" from="219747866#0" to="383097721" departLane="best" type="veh_passenger"/>
    <trip id="veh84" depart="102.22" from="420383144#0" to="37930979#0" departLane="best" type="veh_passenger"/>
    <trip id="veh85" depart="103.43" from="378453707#4" to="170207585#0" departLane="best" type="veh_passenger"/>
    <trip id="veh86" depart="104.65" from="184083199#0" to="117914849#1" departLane="best" type="veh_passenger"/>
    <trip id="veh87" depart="105.87" from="-781985790#4" to="233651269" departLane="best" type="veh_passenger" departSpeed="max"/>
    <trip id="veh88" depart="107.08" from="198564929#5" to="244221646#0" departLane="best" type="veh_passenger"/>
    <trip id="veh89" depart="108.30" from="517641011#0" to="-381456446#0" departLane="best" type="veh_passenger" departSpeed="max"/>
    <trip id="veh90" depart="109.52" from="-223418965#2" to="220027347#2" departLane="best" type="veh_passenger"/>
    <trip id="veh91" depart="110.73" from="-381456424#3" to="-176728955#2" departLane="best" type="veh_passenger"/>
    <trip id="veh92" depart="111.95" from="184444067#0" to="333972428#3" departLane="best" type="veh_passenger" departSpeed="max"/>
    <trip id="veh93" depart="113.17" from="218919060#3" to="-775222468#4" departLane="best" type="veh_passenger"/>
    <trip id="veh94" depart="114.38" from="-344663937#1" to="899373686#4" departLane="best" type="veh_passenger"/>
    <trip id="veh95" depart="115.60" from="218926711#1" to="-198691076#0" departLane="best" type="veh_passenger"/>
    <trip id="veh96" depart="116.82" from="244221645" to="899373686#0" departLane="best" type="veh_passenger"/>
    <trip id="veh97" depart="118.04" from="769110715#0" to="315658900#6" departLane="best" type="veh_passenger" departSpeed="max"/>
    <trip id="veh98" depart="119.25" from="468186048" to="220027347#6" departLane="best" type="veh_passenger" departSpeed="max"/>
    <trip id="veh99" depart="120.47" from="381456465" to="-218923156#9" departLane="best" type="veh_passenger"/>
    <trip id="veh100" depart="121.69" from="184083199#6" to="228797633#0" departLane="best" type="veh_passenger"/>
    <trip id="veh101" depart="122.90" from="198564925#2" to="775222468#9" departLane="best" type="veh_passenger"/>
    <trip id="veh102" depart="124.12" from="233651333#5" to="381456445" departLane="best" type="veh_passenger"/>
    <trip id="veh103" depart="125.34" from="620634303#1" to="464461052#0" departLane="best" type="veh_passenger"/>
    <trip id="veh104" depart="126.55" from="1212424791#2" to="431903251#0" departLane="best" type="veh_passenger"/>
    <trip id="veh105" depart="127.77" from="220027347#6" to="301285279#1" departLane="best" type="veh_passenger"/>
    <trip id="veh106" depart="128.99" from="117914848#0" to="381226323" departLane="best" type="veh_passenger"/>
    <trip id="veh107" depart="130.20" from="184083199#14" to="-381456424#3" departLane="best" type="veh_passenger"/>
    <trip id="veh108" depart="131.42" from="315658900#0" to="-180190213#0" departLane="best" type="veh_passenger"/>
    <trip id="veh109" depart="132.64" from="-170207585#1" to="350127794#3" departLane="best" type="veh_passenger"/>
    <trip id="veh110" depart="133.85" from="-198564928#22" to="184083199#14" departLane="best" type="veh_passenger" departSpeed="max"/>
    <trip id="veh111" depart="135.07" from="468186048" to="184083199#14" departLane="best" type="veh_passenger" departSpeed="max"/>
    <trip id="veh112" depart="136.29" from="955312948" to="184083158#1" departLane="best" type="veh_passenger"/>
    <trip id="veh113" depart="137.50" from="899373686#4" to="-420383139#0" departLane="best" type="veh_passenger"/>
    <trip id="veh114" depart="138.72" from="-243542154#1" to="378453707#7" departLane="best" type="veh_passenger"/>
    <trip id="veh115" depart="139.94" from="381456449" to="464461052#0" departLane="best" type="veh_passenger"/>
    <trip id="veh116" depart="141.16" from="-329995227#0" to="315658896#7" departLane="best" type="veh_passenger"/>
    <trip id="veh117" depart="142.37" from="613477341#0" to="899373686#6" departLane="best" type="veh_passenger"/>
    <trip id="veh118" depart="143.59" from="-233651288#0" to="-180190213#0" departLane="best" type="veh_passenger"/>
    <trip id="veh119" depart="144.81" from="381456424#0" to="333557072#5" departLane="best" type="veh_passenger"/>
    <trip id="veh120" depart="146.02" from="198564929#0" to="184083187#0" departLane="best" type="veh_passenger"/>
    <trip id="veh121" depart="147.24" from="-233651273" to="899373686#4" departLane="best" type="veh_passenger"/>
    <trip id="veh122" depart="148.46" from="329995231#0" to="619147730#0" departLane="best" type="veh_passenger"/>
    <trip id="veh123" depart="149.67" from="420361201" to="908622900#0" departLane="best" type="veh_passenger"/>
    <trip id="veh124" depart="150.89" from="219747866#0" to="218924602#4" departLane="best" type="veh_passenger"/>
    <trip id="veh125" depart="152.11" from="198566324#0" to="413953596#2" departLane="best" type="veh_passenger"/>
    <trip id="veh126" depart="153.32" from="619147731" to="-233651273" departLane="best" type="veh_passenger"/>
    <trip id="veh127" depart="154.54" from="73541403#2" to="-775222468#4" departLane="best" type="veh_passenger"/>
    <trip id="veh128" depart="155.76" from="620634303#0" to="-381456469#0" departLane="best" type="veh_passenger"/>
    <trip id="veh129" depart="156.97" from="-381456462#3" to="517641017#0" departLane="best" type="veh_passenger"/>
    <trip id="veh130" depart="158.19" from="1199229109" to="73550863#0" departLane="best" type="veh_passenger"/>
    <trip id="veh131" depart="159.41" from="381456455#0" to="1084408277#1" departLane="best" type="veh_passenger"/>
    <trip id="veh132" depart="160.63" from="-223418965#9" to="383097721" departLane="best" type="veh_passenger"/>
    <trip id="veh133" depart="161.84" from="218919060#0" to="464459665" departLane="best" type="veh_passenger"/>
    <trip id="veh134" depart="163.06" from="381456424#0" to="355655430#2" departLane="best" type="veh_passenger"/>
    <trip id="veh135" depart="164.28" from="-228795477#3" to="-480233462#0" departLane="best" type="veh_passenger"/>
    <trip id="veh136" depart="165.49" from="381456457#2" to="1013396414#0" departLane="best" type="veh_passenger"/>
    <trip id="veh137" depart="166.71" from="-464461053#3" to="-273896156#0" departLane="best" type="veh_passenger"/>
    <trip id="veh138" depart="167.93" from="913405361" to="223418965#10" departLane="best" type="veh_passenger"/>
    <trip id="veh139" depart="169.14" from="-770860552#2" to="-233651338#0" departLane="best" type="veh_passenger"/>
    <trip id="veh140" depart="170.36" from="-381456418#4" to="-555478018#1" departLane="best" type="veh_passenger"/>
    <trip id="veh141" depart="171.58" from="381456446#0" to="-315658896#2" departLane="best" type="veh_passenger" departSpeed="max"/>
    <trip id="veh142" depart="172.79" from="717851360#0" to="243542154#6" departLane="best" type="veh_passenger" departSpeed="max"/>
    <trip id="veh143" depart="174.01" from="616037662" to="198564928#17" departLane="best" type="veh_passenger"/>
    <trip id="veh144" depart="175.23" from="919985574#0" to="-273639040#2" departLane="best" type="veh_passenger" departSpeed="max"/>
    <trip id="veh145" depart="176.44" from="919985574#0" to="1207199730#2" departLane="best" type="veh_passenger" departSpeed="max"/>
    <trip id="veh146" depart="177.66" from="420383141#1" to="899373686#0" departLane="best" type="veh_passenger"/>
    <trip id="veh147" depart="178.88" from="-381456453#1" to="-464461048#0" departLane="best" type="veh_passenger"/>
    <trip id="veh148" depart="180.09" from="378453707#2" to="-381230507#0" departLane="best" type="veh_passenger"/>
    <trip id="veh149" depart="181.31" from="-344663892#1" to="-228795477#1" departLane="best" type="veh_passenger"/>
    <trip id="veh150" depart="182.53" from="516417601#0" to="329995230#2" departLane="best" type="veh_passenger" departSpeed="max"/>
    <trip id="veh151" depart="183.75" from="378453707#2" to="782892491#1" departLane="best" type="veh_passenger"/>
    <trip id="veh152" depart="184.96" from="198564928#15" to="228797640#0" departLane="best" type="veh_passenger"/>
    <trip id="veh153" depart="186.18" from="350127794#1" to="781983104#1" departLane="best" type="veh_passenger"/>
    <trip id="veh154" depart="187.40" from="619147726#1" to="-228795468#0" departLane="best" type="veh_passenger"/>
    <trip id="veh155" depart="188.61" from="-322977650" to="1207199730#2" departLane="best" type="veh_passenger" departSpeed="max"/>
    <trip id="veh156" depart="189.83" from="464459667" to="233652295#0" departLane="best" type="veh_passenger"/>
    <trip id="veh157" depart="191.05" from="-772279128#0" to="-301285279#2" departLane="best" type="veh_passenger"/>
    <trip id="veh158" depart="192.26" from="-228795474#1" to="899373686#6" departLane="best" type="veh_passenger"/>
    <trip id="veh159" depart="193.48" from="619147732#1" to="243542154#9" departLane="best" type="veh_passenger"/>
    <trip id="veh160" depart="194.70" from="-184083250#1" to="438360329" departLane="best" type="veh_passenger"/>
    <trip id="veh161" depart="195.91" from="198691087#0" to="37403012#0" departLane="best" type="veh_passenger"/>
    <trip id="veh162" depart="197.13" from="1207481551#0" to="170403792" departLane="best" type="veh_passenger"/>
    <trip id="veh163" depart="198.35" from="1084408283#2" to="381456444" departLane="best" type="veh_passenger"/>
    <trip id="veh164" depart="199.56" from="-771923366" to="829964067#0" departLane="best" type="veh_passenger" departSpeed="max"/>
    <trip id="veh165" depart="200.78" from="220027347#3" to="198566324#0" departLane="best" type="veh_passenger"/>
    <trip id="veh166" depart="202.00" from="-381226322#2" to="184083181#7" departLane="best" type="veh_passenger"/>
    <trip id="veh167" depart="203.22" from="464461055" to="329995231#0" departLane="best" type="veh_passenger"/>
    <trip id="veh168" depart="204.43" from="198691055#0" to="381456453#1" departLane="best" type="veh_passenger"/>
    <trip id="veh169" depart="205.65" from="273638833#6" to="-770860551" departLane="best" type="veh_passenger"/>
    <trip id="veh170" depart="206.87" from="-315658899#1" to="233651280#1" departLane="best" type="veh_passenger"/>
    <trip id="veh171" depart="208.08" from="228795468#0" to="-233651317#5" departLane="best" type="veh_passenger"/>
    <trip id="veh172" depart="209.30" from="919985574#0" to="781985786#8" departLane="best" type="veh_passenger" departSpeed="max"/>
    <trip id="veh173" depart="210.52" from="198691078#3" to="-273638834#6" departLane="best" type="veh_passenger"/>
    <trip id="veh174" depart="211.73" from="383097722#0" to="219696192#7" departLane="best" type="veh_passenger"/>
    <trip id="veh175" depart="212.95" from="-766904027#11" to="619147732#1" departLane="best" type="veh_passenger" departSpeed="max"/>
    <trip id="veh176" depart="214.17" from="228795465" to="184083199#6" departLane="best" type="veh_passenger"/>
    <trip id="veh177" depart="215.38" from="732213463#3" to="651696631#0" departLane="best" type="veh_passenger"/>
    <trip id="veh178" depart="216.60" from="-767524334#2" to="512990324" departLane="best" type="veh_passenger" departSpeed="max"/>
    <trip id="veh179" depart="217.82" from="184444067#0" to="785130598#0" departLane="best" type="veh_passenger" departSpeed="max"/>
    <trip id="veh180" depart="219.03" from="218923188#2" to="616037664#0" departLane="best" type="veh_passenger"/>
    <trip id="veh181" depart="220.25" from="-770860552#0" to="1205679418#1" departLane="best" type="veh_passenger"/>
    <trip id="veh182" depart="221.47" from="237470575#0" to="955312947#0" departLane="best" type="veh_passenger" departSpeed="max"/>
    <trip id="veh183" depart="222.68" from="228795467#1" to="228797635#2" departLane="best" type="veh_passenger"/>
    <trip id="veh184" depart="223.90" from="198691076#1" to="1273170468" departLane="best" type="veh_passenger"/>
    <trip id="veh185" depart="225.12" from="-381226325" to="381456451" departLane="best" type="veh_passenger"/>
    <trip id="veh186" depart="226.34" from="-176728955#2" to="219053199#2" departLane="best" type="veh_passenger"/>
    <trip id="veh187" depart="227.55" from="732213463#0" to="198691080#1" departLane="best" type="veh_passenger" departSpeed="max"/>
    <trip id="veh188" depart="228.77" from="183272487#0" to="1212424791#2" departLane="best" type="veh_passenger"/>
    <trip id="veh189" depart="229.99" from="717851360#0" to="-198564928#12" departLane="best" type="veh_passenger" departSpeed="max"/>
    <trip id="veh190" depart="231.20" from="782892488#4" to="921117704#1" departLane="best" type="veh_passenger"/>
    <trip id="veh191" depart="232.42" from="381456432" to="775222468#6" departLane="best" type="veh_passenger"/>
    <trip id="veh192" depart="233.64" from="-273639766" to="228795468#2" departLane="best" type="veh_passenger" departSpeed="max"/>
    <trip id="veh193" depart="234.85" from="712288152#0" to="320463245#6" departLane="best" type="veh_passenger" departSpeed="max"/>
    <trip id="veh194" depart="236.07" from="-431903253#2" to="781985786#8" departLane="best" type="veh_passenger" departSpeed="max"/>
    <trip id="veh195" depart="237.29" from="-273638834#6" to="218919060#0" departLane="best" type="veh_passenger"/>
    <trip id="veh196" depart="238.50" from="-464461056" to="-824132486" departLane="best" type="veh_passenger"/>
    <trip id="veh197" depart="239.72" from="344663874" to="198691067#2" departLane="best" type="veh_passenger"/>
    <trip id="veh198" depart="240.94" from="-381456424#3" to="184083199#9" departLane="best" type="veh_passenger"/>
    <trip id="veh199" depart="242.15" from="233651284#1" to="243542154#9" departLane="best" type="veh_passenger"/>
    <trip id="veh200" depart="243.37" from="913565824#0" to="378453707#2" departLane="best" type="veh_passenger"/>
    <trip id="veh201" depart="244.59" from="-767524334#2" to="233651333#5" departLane="best" type="veh_passenger" departSpeed="max"/>
    <trip id="veh202" depart="245.81" from="-198564928#22" to="315658896#7" departLane="best" type="veh_passenger" departSpeed="max"/>
    <trip id="veh203" depart="247.02" from="218919060#4" to="775222468#7" departLane="best" type="veh_passenger"/>
    <trip id="veh204" depart="248.24" from="-771678026" to="517641017#2" departLane="best" type="veh_passenger" departSpeed="max"/>
    <trip id="veh205" depart="249.46" from="273638833#0" to="184083158#1" departLane="best" type="veh_passenger" departSpeed="max"/>
    <trip id="veh206" depart="250.67" from="320463177#0" to="775222468#6" departLane="best" type="veh_passenger"/>
    <trip id="veh207" depart="251.89" from="347237859#4" to="1207199730#2" departLane="best" type="veh_passenger"/>
    <trip id="veh208" depart="253.11" from="-775222468#13" to="420383144#0" departLane="best" type="veh_passenger" departSpeed="max"/>
    <trip id="veh209" depart="254.32" from="-344663909#5" to="-318747850#3" departLane="best" type="veh_passenger"/>
    <trip id="veh210" depart="255.54" from="220027347#0" to="908622900#1" departLane="best" type="veh_passenger"/>
    <trip id="veh211" depart="256.76" from="619147731" to="-824132486" departLane="best" type="veh_passenger"/>
    <trip id="veh212" depart="257.97" from="616037663#0" to="218924602#0" departLane="best" type="veh_passenger"/>
    <trip id="veh213" depart="259.19" from="117914849#0" to="-273638833#5" departLane="best" type="veh_passenger"/>
    <trip id="veh214" depart="260.41" from="170207585#1" to="517634898" departLane="best" type="veh_passenger"/>
    <trip id="veh215" depart="261.62" from="378453707#7" to="245063636#2" departLane="best" type="veh_passenger"/>
    <trip id="veh216" depart="262.84" from="616037662-AddedOnRampEdge" to="788411954#0" departLane="best" type="veh_passenger"/>
    <trip id="veh217" depart="264.06" from="228795481#0" to="781985788#0" departLane="best" type="veh_passenger"/>
    <trip id="veh218" depart="265.27" from="-272232099#1" to="829964067#0" departLane="best" type="veh_passenger" departSpeed="max"/>
    <trip id="veh219" depart="266.49" from="-228795481#1" to="770860548#0" departLane="best" type="veh_passenger"/>
    <trip id="veh220" depart="267.71" from="-245063636#3" to="218773869#3" departLane="best" type="veh_passenger" departSpeed="max"/>
    <trip id="veh221" depart="268.93" from="378453707#5" to="420383139#1" departLane="best" type="veh_passenger"/>
    <trip id="veh222" depart="270.14" from="899373686#4" to="-184444067#0" departLane="best" type="veh_passenger"/>
    <trip id="veh223" depart="271.36" from="135131180#0" to="198564928#11" departLane="best" type="veh_passenger" departSpeed="max"/>
    <trip id="veh224" depart="272.58" from="-381230507#1" to="-273896156#0" departLane="best" type="veh_passenger"/>
    <trip id="veh225" depart="273.79" from="516417601#0" to="-775222468#3" departLane="best" type="veh_passenger" departSpeed="max"/>
    <trip id="veh226" depart="275.01" from="-243542154#1" to="233651333#0" departLane="best" type="veh_passenger"/>
    <trip id="veh227" depart="276.23" from="-381456452#2" to="-464461054#0" departLane="best" type="veh_passenger"/>
    <trip id="veh228" depart="277.44" from="712288152#0" to="135131180#1" departLane="best" type="veh_passenger" departSpeed="max"/>
    <trip id="veh229" depart="278.66" from="-273639766" to="-315658900#5" departLane="best" type="veh_passenger" departSpeed="max"/>
    <trip id="veh230" depart="279.88" from="-464461053#1" to="-381456455#1" departLane="best" type="veh_passenger"/>
    <trip id="veh231" depart="281.09" from="378453707#2" to="-180190213#0" departLane="best" type="veh_passenger"/>
    <trip id="veh232" depart="282.31" from="420383144#0" to="223418965#10" departLane="best" type="veh_passenger"/>
    <trip id="veh233" depart="283.53" from="420391187#0" to="218923160#4" departLane="best" type="veh_passenger"/>
    <trip id="veh234" depart="284.74" from="516417601#0" to="656122981#1" departLane="best" type="veh_passenger" departSpeed="max"/>
    <trip id="veh235" depart="285.96" from="381456417#1" to="218926711#1" departLane="best" type="veh_passenger"/>
    <trip id="veh236" depart="287.18" from="-221975143#3" to="315658897#0" departLane="best" type="veh_passenger" departSpeed="max"/>
    <trip id="veh237" depart="288.39" from="219096265" to="218773869#3" departLane="best" type="veh_passenger"/>
    <trip id="veh238" depart="289.61" from="273028084#10" to="-233651333#3" departLane="best" type="veh_passenger"/>
    <trip id="veh239" depart="290.83" from="381456457#0" to="620634303#0" departLane="best" type="veh_passenger"/>