<?xml version="1.0" encoding="UTF-8"?>

<!-- generated on 2025-10-21 14:09:14.528836 by randomTrips.py UNKNOWN
<configuration>
    <net-file value="/home/ciot/wireless_simulator/scenario/Myeongdong/sumo/osm.net.xml.gz"/>
    <output-trip-file value="/home/ciot/wireless_simulator/scenario/Myeongdong/sumo/osm.passenger.trips.xml"/>
    <route-file value="/home/ciot/wireless_simulator/scenario/Myeongdong/sumo/osm.passenger.rou.xml"/>
    <prefix value="veh"/>
    <trip-attributes value="departLane=&quot;best&quot;"/>
    <fringe-start-attributes value="departSpeed=&quot;max&quot;"/>
    <vehicle-class value="passenger"/>
    <lanes value="True"/>
    <fringe-factor value="5"/>
    <allow-fringe.min-length value="1000.0"/>
    <edge-permission value="passenger"/>
    <via-edge-types value="highway.motorway,highway.motorway_link,highway.trunk_link,highway.primary_link,highway.secondary_link,highway.tertiary_link"/>
    <min-distance value="1000.0"/>
    <min-distance.fringe value="10.0"/>
    <remove-loops value="True"/>
    <end value="1200.0"/>
    <insertion-density value="20.0"/>
</configuration>
-->

<!-- generated on 2025-10-21 14:09:14 by Eclipse SUMO duarouter Version 1.24.0
<duarouterConfiguration xmlns:xsi="http://www.w3.org/2001/XMLSchema-instance" xsi:noNamespaceSchemaLocation="http://sumo.dlr.de/xsd/duarouterConfiguration.xsd">

    <input>
        <net-file value="/home/ciot/wireless_simulator/scenario/Myeongdong/sumo/osm.net.xml.gz"/>
        <route-files value="/home/ciot/wireless_simulator/scenario/Myeongdong/sumo/osm.passenger.trips.xml"/>
    </input>

    <output>
        <output-file value="/home/ciot/wireless_simulator/scenario/Myeongdong/sumo/osm.passenger.rou.xml"/>
        <alternatives-output value="NUL"/>
    </output>

    <processing>
        <remove-loops value="true"/>
    </processing>

    <time>
        <begin value="0.0"/>
        <end value="1200.0"/>
    </time>

    <report>
        <no-warnings value="true"/>
        <ignore-errors value="true"/>
        <no-step-log value="true"/>
    </report>

</duarouterConfiguration>
-->

<routes xmlns:xsi="http://www.w3.org/2001/XMLSchema-instance" xsi:noNamespaceSchemaLocation="http://sumo.dlr.de/xsd/routes_file.xsd">
    <vType id="veh_passenger" vClass="passenger"/>
    <vehicle id="veh0" type="veh_passenger" depart="0.00" departLane="best">
        <route edges="344663892#1 -184443141#4 -184443141#2 -184443141#1 -1084408276#1 -424940172 -333725870 -218923156#9 -218923156#8 -218923156#6 -218923156#5 -218923156#4 -218923156#2 -218923156#1 -218923156#0 218923188#0 218923188#1 218923188#2 218923188#4 -198564930 198564932 198564935#0 619147732#0 619147732#1 493183992#0 493183992#2 -480233462#6 -480233462#1 -176728955#4"/>
    </vehicle>
    <vehicle id="veh1" type="veh_passenger" depart="1.22" departLane="best" departSpeed="max">
        <route edges="-767524334#2 244221644#1 1283636940#0 1283636940#1 1120540512 413953597#1 218915133#0 218915133#2 218915133#3 347237859#0 347237859#1 347237859#2 347237859#3 347237859#4 781985787#0 913372757 -383097722#0 383097714 219125068#0 -345046979#6 -345046979#3 -198691067#2 117914849#0 117914849#1 908622900#1 619147732#0 619147732#1 493183992#0 493183992#2 -480233462#6 -480233462#1"/>
    </vehicle>
    <vehicle id="veh2" type="veh_passenger" depart="2.43" departLane="best">
        <route edges="420361206#0 1274416500 273638833#6 219696193#0 219696193#2 781985793#0 420361196 347237859#0 347237859#1 347237859#2 347237859#3 347237859#4 781985787#0 781985787#1 218915135#0 218915135#2-AddedOnRampEdge 218915135#2 218915135#3 781983104#0 781983104#1 333557072#3 -770860548#3 -770860548#2 770860565#0 770860565#1 78628775#4 379943755#1"/>
    </vehicle>
    <vehicle id="veh3" type="veh_passenger" depart="3.65" departLane="best">
        <route edges="769116603#1 413953597#1 782892489#0 782892489#3 782892489#4 782892489#5 782892489#5-AddedOffRampEdge 782892489#7 913565824#0 913565824#5 913565824#7 -228795478#2 -228795478#1 -233651275"/>
    </vehicle>
    <vehicle id="veh4" type="veh_passenger" depart="4.87" departLane="best">
        <route edges="-156570776 -420383159#0 170403787#0 170403787#1 -198564928#10 -198564928#8 -198564928#7 -198564928#6 -198564928#5 -1205679418#10 -1205679418#7 -1205679418#5 -1205679418#4 -1205679418#3 -1205679418#2 -1205679418#1 -1205679418#0 420361195 180368915#2 180368915#3 218915133#0 218915133#2 218915133#3 347237859#0 347237859#1 781985786#7 781985786#8 1109231376 620607766#0 620607766#3 775222468#1 -420361205#3"/>
    </vehicle>
    <vehicle id="veh5" type="veh_passenger" depart="6.08" departLane="best">
        <route edges="383097722#0 781985788#0 781985786#0 781985786#2 781985786#3 781985786#4 781985786#5 781985786#6 781985786#7 781985786#8 781985784 781985779#0 781985792#0-AddedOnRampEdge 781985792#0 781985792#3 785130598#0 785130598#3 223418965#1 223418965#2 223418965#3 223418965#5 272232099#0"/>
    </vehicle>
    <vehicle id="veh6" type="veh_passenger" depart="7.30" departLane="best">
        <route edges="517641017#4 517641017#5 517706841#0 517706841#2 517706841#3 517706841#4 908694579 656122981#1 656122981#2-AddedOnRampEdge 656122981#2 656122981#4 782892488#0 -1205679418#12 198564928#5 198564928#6 198564928#7 198564928#8 198564928#10 198564928#11 198564928#12 198564928#13 198564928#14 198564928#15 320463245#0 320463245#4 320463245#5 -1125773040"/>
    </vehicle>
    <vehicle id="veh7" type="veh_passenger" depart="8.52" departLane="best">
        <route edges="1199229108 73541403#0 73541403#2 73541403#4 73541403#6 73541403#7 73541403#8 -218923156#8 -218923156#6 -218923156#5 -218923156#4 -218923156#2 -218923156#1 -218923156#0 -219096265 -708672701#15 -708672701#14 -708672701#13 -708672701#7 -219125068#1 -383097714 383097722#0 781985788#0 -383097723#1 -383097723#0 -379943276#1 381226322#0 381226322#2"/>
    </vehicle>
    <vehicle id="veh8" type="veh_passenger" depart="9.73" departLane="best">
        <route edges="908622900#0 908622900#1 378453707#0 378453707#2 -355655430#4 -355655430#1 469260694#7 469260694#8 73541403#4 73541403#6 73541403#7 73541403#8 73541403#10 908646367#2-AddedOnRampEdge 908646367#2 908646367#3 908646367#5 908646367#6 908646367#7 908646367#8 908646367#11 218924602#0 218924602#2 218924602#4 218924602#5 218924602#6 170403818"/>
    </vehicle>
    <vehicle id="veh9" type="veh_passenger" depart="10.95" departLane="best">
        <route edges="-228795477#3 -420383144#0 420383145 782892489#4 782892489#5 782892489#5-AddedOffRampEdge 782892489#7 913565824#0 218974504#0 218974504#3 218974504#4 218974504#5 218923188#0 218923188#1 -1002205302 -233651327#5"/>
    </vehicle>
    <vehicle id="veh10" type="veh_passenger" depart="12.17" departLane="best">
        <route edges="517641017#0 517641017#2 517641017#4 517641017#5 517706841#0 517706841#2 517706841#3 517706841#4 908694579 656122981#1 656122981#2-AddedOnRampEdge 656122981#2 656122981#4 613477341#0 613477341#3 218974503#0 218974503#3 413953596#0 413953596#2-AddedOnRampEdge 413953596#2"/>
    </vehicle>
    <vehicle id="veh11" type="veh_passenger" depart="13.39" departLane="best">
        <route edges="619147729#2 619147735#0 228797635#0 117914842#9 -333972428#3 -333972428#1 -333972428#0 1312934686 -183272462#0 383097727#0 -383097714 383097722#0 781985788#0 781985786#0 781985786#2 781985786#3 781985786#4 781985786#5 781985786#6 781985786#7 781985786#8 781985784 781985779#0 781985792#0-AddedOnRampEdge 781985792#0 781985792#3 219696192#0 219696192#4 -228795471 420383140#1 420383140#4 420383140#5 -381456420#7 -381456420#6 381456466#2 320463245#4"/>
    </vehicle>
    <vehicle id="veh12" type="veh_passenger" depart="14.60" departLane="best">
        <route edges="656122981#1 656122981#2-AddedOnRampEdge 656122981#2 656122981#4 613477341#0 613477341#3 218974503#0 218974503#3 218915133#0 218915133#2 218915133#3 347237859#0 347237859#1 347237859#2 347237859#3 347237859#4 781985787#0 781985787#1 -383097723#1 -383097723#0 -379943276#1 -379943276#0 218915132#0"/>
    </vehicle>
    <vehicle id="veh13" type="veh_passenger" depart="15.82" departLane="best">
        <route edges="381456462#1 381456462#2 218773869#5 219696193#0 219696193#2 781985793#0 420361196 347237859#0 347237859#1 347237859#2 347237859#3 347237859#4 781985787#0 913372757 -383097722#0 383097714 219125068#0 -345046979#6 -345046979#3 -198691067#2 -198691067#1"/>
    </vehicle>
    <vehicle id="veh14" type="veh_passenger" depart="17.04" departLane="best">
        <route edges="-419752069 -419750461#0 180190213#2 517641017#0 517641017#2 517641017#4 517641017#5 517706841#0 517706841#2 517706841#3 517706841#4 908694579 656122981#1 656122981#2-AddedOnRampEdge 656122981#2 656122981#4 613477341#0 613477341#3 218974503#0 218974503#3 218915133#0 218915133#2 218915133#3 347237859#0 347237859#1 347237859#2 347237859#3 347237859#4 781985787#0 913372757 -383097722#0 383097714 219125068#0 -345046979#6 -345046979#3 -198691067#2 117914849#0 117914842#0"/>
    </vehicle>
    <vehicle id="veh15" type="veh_passenger" depart="18.25" departLane="best">
        <route edges="-228797638 383097723#0 383097723#1 -781985788#2 -383097722#0 383097714 219125068#0 -345046979#6 -345046979#3 -198691067#2 -198691067#1 198564933 198564930 469260694#0 469260694#2 469260694#3 469260694#4 469260694#5 469260694#7 469260694#8 377289801#0 620634305 377289802#0 350127794#6 350127794#8 1199229109 378453707#7 616037663#0 219747865#0 1084408278#0"/>
    </vehicle>
    <vehicle id="veh16" type="veh_passenger" depart="19.47" departLane="best" departSpeed="max">
        <route edges="-651817398#4 619147739#1 619147739#3 619147739#5 619147739#6 781983103#1 781983103#2 921117704#0 921117704#1 921117704#2 781985786#0 781985786#2 781985786#3 781985786#4 781985786#5 781985786#6 781985786#7 781985786#8 781985784 781985779#0 781985792#0-AddedOnRampEdge 781985792#0 781985792#3 785130598#0 785130598#3 785130598#5"/>
    </vehicle>
    <vehicle id="veh17" type="veh_passenger" depart="20.69" departLane="best">
        <route edges="350127794#1 350127794#3 -233651270#2 -233651270#1 474532059#4 1207481551#0 -1084408276#4 -1084408276#1 -424940172 -333725870 -218923156#9 -218923156#8 -218923156#6 -218923156#5 -218923156#4 -218923156#2 -218923156#1 -218923156#0 -219096265 -708672701#15 -708672701#14 -708672701#13 -708672701#7 -219125068#1 -383097714 383097722#0 781985788#0 218915135#0 218915135#2-AddedOnRampEdge 218915135#2 218915135#3 315658899#0 315658897#3"/>
    </vehicle>
    <vehicle id="veh18" type="veh_passenger" depart="21.90" departLane="best">
        <route edges="-333725870 -218923156#9 73541403#10 908646367#2-AddedOnRampEdge 908646367#2 1205679413 656122981#2-AddedOnRampEdge 656122981#2 656122981#4 613477341#0 613477341#3 218974503#0 218974503#3 413953596#0"/>
    </vehicle>
    <vehicle id="veh19" type="veh_passenger" depart="23.12" departLane="best">
        <route edges="-318747850#1 381226325 218915132#1 383097720 383097728 616037662-AddedOnRampEdge 616037662 379943276#0 379943276#1 383097723#0 383097723#1 -781985788#2 -383097722#0 383097714 219125068#0 218961360#0 708672701#8 708672701#14 708672701#15 219096265 218923156#0 218923156#1 218923156#2 218923156#4 218923156#5 218923156#6 218923156#7 218923156#9 333725870 424940172 1084408276#0 1084408276#3 184083199#9 184083199#12 184083199#14"/>
    </vehicle>
    <vehicle id="veh20" type="veh_passenger" depart="24.34" departLane="best" departSpeed="max">
        <route edges="919985574#0 919985574#1 620604518#0 37930979#0 474532059#0 474532059#1 474532059#2 474532059#4 1207481551#0 -1084408276#4 -1084408276#1 -424940172 -333725870 -218923156#9 73541403#10 908646367#2-AddedOnRampEdge 908646367#2 1205679413 656122981#2-AddedOnRampEdge 656122981#2 656122981#4 613477341#0 613477341#3 218974503#0 218974503#3 218915133#0 218915133#2 218915133#3 347237859#0 347237859#1 347237859#2 347237859#3 347237859#4"/>
    </vehicle>
    <vehicle id="veh21" type="veh_passenger" depart="25.55" departLane="best">
        <route edges="420361201 767063626 420361194#0 773060736 781985779#0 781985792#0-AddedOnRampEdge 781985792#0 781985792#3 219696192#0 219696192#4 219696192#6 219696192#7 219696192#8 219696192#10 824132484 824132486 420383141#0 420383141#1 420383141#2 -506162633 517641026#0 517641026#2 517641017#0 517641017#2 -184444067#4 -184444067#3 -184444067#2 -184444067#0"/>
    </vehicle>
    <vehicle id="veh22" type="veh_passenger" depart="26.77" departLane="best">
        <route edges="-381456459 381456424#4 381456424#6 381456424#8 381456462#0 381456462#1 381456462#2 218773869#5 219696193#0 219696193#2 781985793#0 420361196 347237859#0 347237859#1 347237859#2 347237859#3 347237859#4 781985787#0 913372757 -383097722#0 383097714 219125068#0 -345046979#6 -345046979#3 -198691067#2 117914849#0 117914849#1 908622900#1 619147732#0 619147732#1 517634898 899373686#0 899373686#3-AddedOnRampEdge 899373686#3 821107999#0"/>
    </vehicle>
    <vehicle id="veh23" type="veh_passenger" depart="27.99" departLane="best" departSpeed="max">
        <route edges="732213463#0 732213463#2 732213463#3 1212424791#0 1212424791#2 1212424791#7 1212424791#8 908694578#0 908694578#2 908694578#3 908694578#6 908694578#7 1084408276#0 1084408276#3 1207481552#0"/>
    </vehicle>
    <vehicle id="veh24" type="veh_passenger" depart="29.20" departLane="best">
        <route edges="233651338#1 1002205303#1 -218923156#2 -218923156#1 -218923156#0 -219096265 -708672701#15 -708672701#14 -708672701#13 -708672701#7 -219125068#1 -383097714 383097722#0 781985788#0 781985786#0 781985786#2 781985786#3 781985786#4 781985786#5 781985786#6 781985786#7 781985786#8 781985784 781985779#0 781985792#0-AddedOnRampEdge 781985792#0 781985792#3 273638834#0 273638834#5 273639765#0 772279128#1 772279128#5"/>
    </vehicle>
    <vehicle id="veh25" type="veh_passenger" depart="30.42" departLane="best" departSpeed="max">
        <route edges="-233651294#1 -233651332#2 -233651332#0 184444067#4 517641017#4 517641017#5 517706841#0 517706841#2 517706841#3 517706841#4 908694579 656122981#1 656122981#2-AddedOnRampEdge 656122981#2 656122981#4 613477341#0 613477341#3 218974503#0 218974503#3 218915133#0 218915133#2 218915133#3 347237859#0 347237859#1 347237859#2 347237859#3 347237859#4 781985787#0 781985787#1 218915135#0 218915135#2-AddedOnRampEdge 218915135#2 218915135#3 781983104#0 781983104#1 333557072#3 333557072#5"/>
    </vehicle>
    <vehicle id="veh26" type="veh_passenger" depart="31.64" departLane="best">
        <route edges="919985574#1 620604518#0 37930979#0 474532059#0 474532059#1 474532059#2 474532059#4 1207481551#0 -1084408276#4 -1084408276#1 -424940172 -333725870 -218923156#9 73541403#10 908646367#2-AddedOnRampEdge 908646367#2 908646367#3 908646367#5 908646367#6 908646367#7 -329995230#2 -329995230#1 -329995230#0 -1205679418#14 -1205679418#12 -1205679418#10 -1205679418#7 -1205679418#5 228795465"/>
    </vehicle>
    <vehicle id="veh27" type="veh_passenger" depart="32.86" departLane="best">
        <route edges="908646367#8 908646367#11 -506162633 1212424791#0 1212424791#2 1212424791#7 1212424791#8 908694578#0 908694578#2 908694578#3 908694578#6 908694578#7 350127794#0 350127794#1 350127794#3 350127794#4 350127794#6 350127794#8 1199229109 378453707#7 620634302 620634303#0 620634303#1 620634303#2"/>
    </vehicle>
    <vehicle id="veh28" type="veh_passenger" depart="34.07" departLane="best" departSpeed="max">
        <route edges="-651817398#4 619147739#1 619147739#3 619147739#5 619147739#6 781983103#1 781983103#2 921117704#0 921117704#1 921117704#2 -781985788#2 -383097722#0 383097714 219125068#0 218961360#0 708672701#8 708672701#14 708672701#15 219096265 218923156#0 218923156#1 218923156#2 218923156#4 218923156#5 218923156#6 218923156#7 218923156#9 333725870 424940172 1084408276#0 1084408276#3 -1084408276#4 -1084408276#1 350127794#0"/>
    </vehicle>
    <vehicle id="veh29" type="veh_passenger" depart="35.29" departLane="best" departSpeed="max">
        <route edges="732213463#0 732213463#2 732213463#3 1212424791#0 1212424791#2 1212424791#7 1212424791#8 908694578#0 908694578#2 908694578#3 908694578#6 908694578#7 -424940172 -333725870 -218923156#9 -218923156#8 -218923156#6 1002205277 1002205279"/>
    </vehicle>
    <vehicle id="veh30" type="veh_passenger" depart="36.51" departLane="best">
        <route edges="218923160#0 218923160#0-AddedOffRampEdge 218923160#4 219096264 198564925#0 198564925#1 198564925#2 198564925#4 782892488#0 -1205679418#12 198564928#5 198564928#6 198564928#7 198564928#8 198564928#10 198564928#11 198564928#12 198564928#13 198564928#14 381456420#0 381456420#1 381456420#3 381456420#5 381456420#6 381456420#7 381456463#0 381456463#1"/>
    </vehicle>
    <vehicle id="veh31" type="veh_passenger" depart="37.72" departLane="best">
        <route edges="781985788#0 781985786#0 781985786#2 781985786#3 781985786#4 781985786#5 781985786#6 781985786#7 781985786#8 781985784 781985779#0 781985792#0-AddedOnRampEdge 781985792#0 781985792#3 219696192#0 219696192#4 219696192#6 219696192#7 219696192#8 219696192#10 824132484 824132486 420383141#0 420383141#1 420383141#2 218924602#0 218924602#2 656122993"/>
    </vehicle>
    <vehicle id="veh32" type="veh_passenger" depart="38.94" departLane="best" departSpeed="max">
        <route edges="468186048 616037662-AddedOnRampEdge 616037662 379943276#0 379943276#1 383097723#0 913392928#0 781985786#2 781985786#3 781985786#4 781985786#5 781985786#6 781985786#7 781985786#8 781985784 781985779#0 781985792#0-AddedOnRampEdge 781985792#0 781985792#3 219696192#0 219696192#4 219696192#6 219696192#7 219696192#8 219696192#10 824132484 824132486 420383141#0 420383141#1 -228795470 228795481#0"/>
    </vehicle>
    <vehicle id="veh33" type="veh_passenger" depart="40.16" departLane="best" departSpeed="max">
        <route edges="480233462#0 480233462#1 480233462#2 619147731 899373688#0 908622900#0 908622900#1 378453707#0 378453707#2 -355655430#4 -355655430#1 469260694#7 469260694#8 73541403#4 73541403#6 73541403#7 73541403#8 73541403#10 908646367#2-AddedOnRampEdge 908646367#2 908646367#3 908646367#5 908646367#6 908646367#7 908646367#8 -228795468#3 -228795468#2 -228795468#1 -228795468#0"/>
    </vehicle>
    <vehicle id="veh34" type="veh_passenger" depart="41.37" departLane="best" departSpeed="max">
        <route edges="-1002205265 -233651317#0 233651338#1 1002205303#1 -218923156#2 -218923156#1 -218923156#0 -219096265 -708672701#15 -708672701#14 -708672701#13 -708672701#7 -219125068#1 -383097714 383097722#0 781985788#0 781985786#0 781985786#2 781985786#3 781985786#4 781985786#5 781985786#6 781985786#7 781985786#8 781985784 781985779#0 781985792#0-AddedOnRampEdge 781985792#0 420361206#0 1283636934#1"/>
    </vehicle>
    <vehicle id="veh35" type="veh_passenger" depart="42.59" departLane="best">
        <route edges="732213463#2 732213463#3 1212424791#0 1212424791#2 1212424791#7 1212424791#8 908694578#0 908694578#2 908694578#3 908694578#6 908694578#7 -424940172 -333725870 -218923156#9 -218923156#8 -218923156#6 -218923156#5 -218923156#4 -218923156#2 -218923156#1 -218923156#0 218923188#0 218923188#1 218923188#2 218923188#4 -198564930 198564932 198564935#0 619147732#0"/>
    </vehicle>
    <vehicle id="veh36" type="veh_passenger" depart="43.81" departLane="best" departSpeed="max">
        <route edges="732213463#0 732213463#2 732213463#3 1212424791#0 1212424791#2 1212424791#7 1212424791#8 908694579 656122981#1 656122981#2-AddedOnRampEdge 656122981#2 656122981#4 613477341#0 613477341#3 218974503#0 218974503#3 218915133#0 218915133#2 218915133#3 347237859#0 347237859#1 781985786#7 781985786#8 781985784 781985779#0 781985792#0-AddedOnRampEdge 781985792#0 781985792#3 273638834#0 273638834#5 273639765#0 772279128#1 -273640070#3 244221646#2 -892932178"/>
    </vehicle>
    <vehicle id="veh37" type="veh_passenger" depart="45.02" departLane="best">
        <route edges="-223418965#9 -223418965#4 -273638834#9 -273638834#6 -273638834#4 219696192#0 219696192#4 219696192#6 219696192#7 219696192#8 219696192#10 824132484 824132486 420383141#0 420383141#1 420383141#2 218924602#0 218924602#2 218924602#4 218924602#5 218924602#6 218924602#7"/>
    </vehicle>
    <vehicle id="veh38" type="veh_passenger" depart="46.24" departLane="best">
        <route edges="198564928#10 198564928#11 198564928#12 198564928#13 -381456455#1 -381456455#0 381456424#2 381456424#3 381456424#4 381456424#6 381456424#8 381456462#0 381456462#1 381456462#2 218773869#5 219696193#0 219696193#2 781985793#0 420361196 347237859#0 347237859#1 347237859#2 347237859#3 347237859#4 781985787#0 781985787#1 -383097723#1 -383097723#0 -379943276#1 -379943276#0 381230507#0 381230507#1 381230507#2 -464461048#1"/>
    </vehicle>
    <vehicle id="veh39" type="veh_passenger" depart="47.46" departLane="best">
        <route edges="220027347#0 220027347#2 215843535#0 215843535#3 215843535#5 1212424791#7 1212424791#8 908694579 656122981#1 656122981#2-AddedOnRampEdge 656122981#2 656122981#4 613477341#0 613477341#3 218974503#0 218974503#3 413953596#0 413953596#2-AddedOnRampEdge 413953596#2"/>
    </vehicle>
    <vehicle id="veh40" type="veh_passenger" depart="48.67" departLane="best">
        <route edges="198691055#0 198691055#1 198691090 198691068 198691061#3 198691061#4 198691061#6 198691077#7 198691077#9 198691077#11 198691077#14 913565824#0 913565824#5 913565824#7 913565824#8 913565824#9 913565824#10 919117822#1 919117822#4 220027347#0 220027347#2 220027347#3"/>
    </vehicle>
    <vehicle id="veh41" type="veh_passenger" depart="49.89" departLane="best">
        <route edges="620634303#2 1084408283#0 1084408283#2 378453707#0 378453707#2 -355655430#4 -355655430#1 469260694#7 469260694#8 73541403#4 73541403#6 73541403#7 73541403#8 73541403#10 908646367#2-AddedOnRampEdge 908646367#2 908646367#3 908646367#5 908646367#6 908646367#7 -329995230#2 -329995230#1 -329995230#0 -228795467#2"/>
    </vehicle>
    <vehicle id="veh42" type="veh_passenger" depart="51.11" departLane="best">
        <route edges="-381456466#0 381456424#6 381456424#8 381456462#0 381456462#1 381456462#2 218773869#5 219696193#0 219696193#2 781985793#0 420361196 347237859#0 347237859#1 347237859#2 347237859#3 347237859#4 781985787#0 781985787#1 -383097723#1 -383097723#0 -379943276#1 -379943276#0 218915132#0 -381226325 318747850#1 318747850#2 318747850#3"/>
    </vehicle>
    <vehicle id="veh43" type="veh_passenger" depart="52.32" departLane="best" departSpeed="max">
        <route edges="419752056 419752069 517641011#4 517641017#0 517641017#2 517641017#4 517641017#5 517706841#0 517706841#2 517706841#3 517706841#4 908694579 656122981#1 656122981#2-AddedOnRampEdge 656122981#2 656122981#4 613477341#0 613477341#3 218974503#0 218974503#3 218915133#0 218915133#2 218915133#3 347237859#0 347237859#1 347237859#2 347237859#3 347237859#4 781985787#0 781985787#1 -383097723#1 -383097723#0 -379943276#1 -379943276#0"/>
    </vehicle>
    <vehicle id="veh44" type="veh_passenger" depart="53.54" departLane="best">
        <route edges="184083199#12 184083199#14 184083199#16 219747866#0 264034746#0 620634303#0 620634303#1 620634303#2 1084408283#0 1084408283#2 619147732#0 619147732#1 493183992#0 493183992#2 -480233462#6 176728952#0"/>
    </vehicle>
    <vehicle id="veh45" type="veh_passenger" depart="54.76" departLane="best" departSpeed="max">
        <route edges="-464461052#1 -381230507#1 -381230507#0 379943276#0 379943276#1 383097723#0 383097723#1 -781985788#2 -383097722#0 383097714 219125068#0 218961360#0 708672701#8 708672701#14 708672701#15 184083175 198564925#0 198564925#1 198564925#2 198564925#4 782892488#0"/>
    </vehicle>
    <vehicle id="veh46" type="veh_passenger" depart="55.98" departLane="best">
        <route edges="620604518#0 37930979#0 474532059#0 474532059#1 474532059#2 474532059#4 1207481551#0 -1084408276#4 -1084408276#1 -424940172 -333725870 -218923156#9 73541403#10 908646367#2-AddedOnRampEdge 908646367#2 908646367#3 908646367#5 908646367#6 908646367#7 -329995230#2 -329995230#1 -329995230#0 -1205679418#14 -1205679418#12 198564928#5 198564928#6 198564928#7 198564928#8 198564928#10 198564928#11 198564928#12 198564928#13 -381456455#1 -381456455#0 381456424#2 381456424#3 381456424#4 381456424#6 381456424#8"/>
    </vehicle>
    <vehicle id="veh47" type="veh_passenger" depart="57.19" departLane="best">
        <route edges="228795474#0 -228795477#6 -228795477#5 -228795477#3 -228795477#2 -228795477#1 781985793#0 420361196 347237859#0 347237859#1 347237859#2 347237859#3 347237859#4 781985787#0 781985787#1 -383097723#1 -383097723#0 -379943276#1 -379943276#0 218915132#0 218915132#1 383097720 383097721"/>
    </vehicle>
    <vehicle id="veh48" type="veh_passenger" depart="58.41" departLane="best">
        <route edges="-315658896#6 -315658896#5 -315658896#2 -315658896#1 -315658896#0 619147739#6 781983103#1 781983103#2 921117704#0 921117704#1 921117704#2 -781985788#2 -383097722#0 383097714 219125068#0 -345046979#6 -345046979#3 -198691067#2 -198691067#1 198564933 198564930 469260694#0 469260694#2 469260694#3 469260694#4 469260694#5 355655430#0 355655430#2 378453707#4 1199229108"/>
    </vehicle>
    <vehicle id="veh49" type="veh_passenger" depart="59.63" departLane="best">
        <route edges="-198691063#1 198691082#5 198691061#1 198691061#2 198691061#3 198691061#4 198691061#6 198691077#7 198691077#9 198691077#11 198691077#14 913565824#0 913565824#5 913565824#7 913565824#8 1205679415 908646367#6 908646367#7 908646367#8 908646367#11 -506162633 517641026#0 517641026#2 517641017#0 517641017#2 -184444067#4 -184444067#3 245063636#0 245063636#2"/>
    </vehicle>
    <vehicle id="veh50" type="veh_passenger" depart="60.84" departLane="best">
        <route edges="-221975143#1 184083199#14 184083199#16 219747866#0 264034746#0 620634303#0 620634303#1 620634303#2 1084408283#0 1084408283#2 -198564935#2 198691067#0 198691067#2 345046979#0 345046979#4 -219125068#1 -383097714 383097722#0"/>
    </vehicle>
    <vehicle id="veh51" type="veh_passenger" depart="62.06" departLane="best">
        <route edges="244221644#1 1283636940#0 1283636940#1 1120540512 413953597#1 218915133#0 218915133#2 218915133#3 347237859#0 347237859#1 347237859#2 347237859#3 347237859#4 781985787#0 781985787#1 218915135#0 218915135#2-AddedOnRampEdge 218915135#2 218915135#3 781983104#0 781983104#1 333557072#3 -770860548#3 -770860548#2 770860565#0 770860565#1 78628775#4 379943755#1"/>
    </vehicle>
    <vehicle id="veh52" type="veh_passenger" depart="63.28" departLane="best" departSpeed="max">
        <route edges="769110715#0 -198564928#17 -198564928#16 -198564928#15 -198564928#14 -198564928#13 -198564928#12 -198564928#11 -198564928#10 -198564928#8 -198564928#7 -198564928#6 -198564928#5 -1205679418#10 -1205679418#7 -1205679418#5 -1205679418#4 -1205679418#3 -1205679418#2 -1205679418#1 -1205679418#0 420361195 180368915#2 180368915#3 1109231377#0 782892492#0 782892492#1 -420361194#3 244221645 -420361201 -777422408"/>
    </vehicle>
    <vehicle id="veh53" type="veh_passenger" depart="64.49" departLane="best" departSpeed="max">
        <route edges="-381456445 381456418#1 381456418#2 -198564928#18 -198564928#17 -198564928#16 -198564928#15 -198564928#14 -198564928#13 -198564928#12 -198564928#11 -198564928#10 -198564928#8 -198564928#7 -198564928#6 -198564928#5 -1205679418#10 -1205679418#7 -1205679418#5 -1205679418#4 -1205679418#3 -1205679418#2 -1205679418#1 -1205679418#0 420361195 180368915#2 180368915#3 218915133#0 218915133#2 218915133#3 347237859#0 347237859#1 347237859#2 347237859#3 347237859#4 781985787#0 781985787#1 -383097723#1 -383097723#0 -379943276#1 -379943276#0 218915132#0 218915132#1 383097720 383097721"/>
    </vehicle>
    <vehicle id="veh54" type="veh_passenger" depart="65.71" departLane="best">
        <route edges="378453707#7 184083115 474532059#0 474532059#1 474532059#2 474532059#4 1207481551#0 -1084408276#4 -1084408276#1 -424940172 -333725870 -218923156#9 73541403#10 908646367#2-AddedOnRampEdge 908646367#2 908646367#3 908646367#5 908646367#6 908646367#7 -329995230#2 -329995230#1 -329995230#0 -1205679418#14 -1205679418#12 -1205679418#10 -1205679418#7 -1205679418#5 -1205679418#4 -1205679418#3 -1205679418#2"/>
    </vehicle>
    <vehicle id="veh55" type="veh_passenger" depart="66.93" departLane="best">
        <route edges="-218923156#4 -218923156#2 -218923156#1 -218923156#0 -219096265 -708672701#15 -708672701#14 -708672701#13 -708672701#7 -219125068#1 -383097714 383097722#0 781985788#0 -383097723#1 -383097723#0 -379943276#1 -379943276#0 381230507#0 -464461049#3"/>
    </vehicle>
    <vehicle id="veh56" type="veh_passenger" depart="68.14" departLane="best">
        <route edges="619147732#0 619147732#1 517634898 198564929#0 198564929#2 198564929#3 198564929#5 345046979#0 345046979#4 -219125068#1 -383097714 383097722#0 781985788#0 781985786#0 781985786#2 781985786#3 781985786#4 781985786#5 781985786#6 781985786#7 781985786#8 781985784 781985779#0 781985792#0-AddedOnRampEdge 781985792#0 781985792#3 219696192#0 219696192#4 -228795471 420383140#1 420383140#4 420383140#5 381456463#0 381456463#1"/>
    </vehicle>
    <vehicle id="veh57" type="veh_passenger" depart="69.36" departLane="best">
        <route edges="-273640070#3 -244221646#1 135131180#1 769116603#1 413953597#1 782892489#0 782892489#3 782892489#4 782892489#5 782892489#5-AddedOffRampEdge 782892489#7 913565824#0 913565824#5"/>
    </vehicle>
    <vehicle id="veh58" type="veh_passenger" depart="70.58" departLane="best">
        <route edges="360113081#0 360113078#0 233651300#0 233651300#4 233651300#5 517706841#3 517706841#4 908694579 908646367#5 908646367#6 908646367#7 908646367#8 908646367#11 218924602#0 218924602#2 218924602#4 218924602#5 420391195 -420391196#2 1128455670#0"/>
    </vehicle>
    <vehicle id="veh59" type="veh_passenger" depart="71.79" departLane="best">