<?xml version="1.0" encoding="UTF-8"?>

<!-- generated on 2025-06-25 14:12:16.373294 by randomTrips.py UNKNOWN
<configuration>
    <net-file value="d:\github_opencode\Network-Wide_Site-Specific_Neural_Channel_Estimation_Technique\scenario\Suwon\sumo\osm.net.xml.gz"/>
    <output-trip-file value="d:\github_opencode\Network-Wide_Site-Specific_Neural_Channel_Estimation_Technique\scenario\Suwon\sumo\osm.passenger.trips.xml"/>
    <route-file value="d:\github_opencode\Network-Wide_Site-Specific_Neural_Channel_Estimation_Technique\scenario\Suwon\sumo\osm.passenger.rou.xml"/>
    <prefix value="veh"/>
    <trip-attributes value="departLane=&quot;best&quot;"/>
    <fringe-start-attributes value="departSpeed=&quot;max&quot;"/>
    <vehicle-class value="passenger"/>
    <lanes value="True"/>
    <fringe-factor value="5"/>
    <allow-fringe.min-length value="1000.0"/>
    <edge-permission value="passenger"/>
    <via-edge-types value="highway.motorway,highway.motorway_link,highway.trunk_link,highway.primary_link,highway.secondary_link,highway.tertiary_link"/>
    <min-distance value="1000.0"/>
    <min-distance.fringe value="10.0"/>
    <remove-loops value="True"/>
    <validate value="True"/>
    <end value="1200.0"/>
    <insertion-density value="20.0"/>
</configuration>
-->

<!-- generated on 2025-06-25 14:12:16 by Eclipse SUMO duarouter Version 1.19.0
<configuration xmlns:xsi="http://www.w3.org/2001/XMLSchema-instance" xsi:noNamespaceSchemaLocation="http://sumo.dlr.de/xsd/duarouterConfiguration.xsd">

    <input>
        <net-file value="d:\github_opencode\Network-Wide_Site-Specific_Neural_Channel_Estimation_Technique\scenario\Suwon\sumo\osm.net.xml.gz"/>
        <route-files value="d:\github_opencode\Network-Wide_Site-Specific_Neural_Channel_Estimation_Technique\scenario\Suwon\sumo\osm.passenger.trips.xml"/>
    </input>

    <output>
        <output-file value="d:\github_opencode\Network-Wide_Site-Specific_Neural_Channel_Estimation_Technique\scenario\Suwon\sumo\osm.passenger.trips.xml.tmp"/>
        <alternatives-output value="NUL"/>
        <write-trips value="true"/>
    </output>

    <processing>
        <remove-loops value="true"/>
    </processing>

    <time>
        <begin value="0.0"/>
        <end value="1200.0"/>
    </time>

    <report>
        <no-warnings value="true"/>
        <ignore-errors value="true"/>
        <no-step-log value="true"/>
    </report>

</configuration>
-->

<routes xmlns:xsi="http://www.w3.org/2001/XMLSchema-instance" xsi:noNamespaceSchemaLocation="http://sumo.dlr.de/xsd/routes_file.xsd">
    <vType id="veh_passenger" vClass="passenger"/>
    <trip id="veh0" type="veh_passenger" depart="0.00" departLane="best" from="537299517#0" to="495344601"/>
    <trip id="veh1" type="veh_passenger" depart="2.18" departLane="best" from="-537299513" to="392180105#0"/>
    <trip id="veh2" type="veh_passenger" depart="4.37" departLane="best" from="537470157" to="1155674645#3"/>
    <trip id="veh3" type="veh_passenger" depart="6.55" departLane="best" from="775445566" to="-537473695"/>
    <trip id="veh4" type="veh_passenger" depart="8.73" departLane="best" from="-38316093#2" to="392180099#2"/>
    <trip id="veh5" type="veh_passenger" depart="10.92" departLane="best" from="537470174#0" to="42007093#1"/>
    <trip id="veh6" type="veh_passenger" depart="13.10" departLane="best" from="537472177#0" to="392180099#2"/>
    <trip id="veh7" type="veh_passenger" depart="15.29" departLane="best" departSpeed="max" from="537277440" to="1155674645#1"/>
    <trip id="veh8" type="veh_passenger" depart="17.47" departLane="best" from="-470910615#0" to="468973156#0"/>
    <trip id="veh9" type="veh_passenger" depart="19.65" departLane="best" from="-470910615#1" to="537299519"/>
    <trip id="veh10" type="veh_passenger" depart="21.84" departLane="best" departSpeed="max" from="929201567#0" to="471664440#0"/>
    <trip id="veh11" type="veh_passenger" depart="24.02" departLane="best" from="-537299507#3" to="775445564#1"/>
    <trip id="veh12" type="veh_passenger" depart="26.20" departLane="best" from="471664441" to="-779730403#0"/>
    <trip id="veh13" type="veh_passenger" depart="28.39" departLane="best" from="-537302256" to="-929201570#5"/>
    <trip id="veh14" type="veh_passenger" depart="30.57" departLane="best" from="929201570#0" to="1212916640#1"/>
    <trip id="veh15" type="veh_passenger" depart="32.75" departLane="best" from="779730403#2" to="554658422"/>
    <trip id="veh16" type="veh_passenger" depart="34.94" departLane="best" departSpeed="max" from="495344597" to="37395951#0"/>
    <trip id="veh17" type="veh_passenger" depart="37.12" departLane="best" from="-102532327" to="-537472171"/>
    <trip id="veh18" type="veh_passenger" depart="39.31" departLane="best" from="1155674645#2" to="537301348#0"/>
    <trip id="veh19" type="veh_passenger" depart="41.49" departLane="best" from="-929201569" to="476450015"/>
    <trip id="veh20" type="veh_passenger" depart="43.67" departLane="best" from="-392180102#1" to="-537300954#2"/>
    <trip id="veh21" type="veh_passenger" depart="45.86" departLane="best" departSpeed="max" from="-537470155" to="-392180104#5"/>
    <trip id="veh22" type="veh_passenger" depart="48.04" departLane="best" from="-537299519" to="59150651"/>
    <trip id="veh23" type="veh_passenger" depart="50.22" departLane="best" from="-537300953#1" to="495344601"/>
    <trip id="veh24" type="veh_passenger" depart="52.41" departLane="best" from="-537299509#1" to="-470910592#0"/>
    <trip id="veh25" type="veh_passenger" depart="54.59" departLane="best" from="537299511#1" to="495344601"/>
    <trip id="veh26" type="veh_passenger" depart="56.77" departLane="best" from="-775445566" to="-537473695"/>
    <trip id="veh27" type="veh_passenger" depart="58.96" departLane="best" departSpeed="max" from="-775445567#2" to="537452100#7"/>
    <trip id="veh28" type="veh_passenger" depart="61.14" departLane="best" from="-929201562#2" to="554658422"/>
    <trip id="veh29" type="veh_passenger" depart="63.33" departLane="best" departSpeed="max" from="779730403#0" to="656614697"/>
    <trip id="veh30" type="veh_passenger" depart="65.51" departLane="best" from="537470174#2" to="-494317217#1"/>
    <trip id="veh31" type="veh_passenger" depart="67.69" departLane="best" from="-775445564#3" to="1177183910"/>
    <trip id="veh32" type="veh_passenger" depart="69.88" departLane="best" from="775445566" to="929201569"/>
    <trip id="veh33" type="veh_passenger" depart="72.06" departLane="best" from="1154683684#3" to="-392180102#2"/>
    <trip id="veh34" type="veh_passenger" depart="74.24" departLane="best" from="-470910605#2" to="775445567#2"/>
    <trip id="veh35" type="veh_passenger" depart="76.43" departLane="best" from="392180102#3" to="495344601"/>
    <trip id="veh36" type="veh_passenger" depart="78.61" departLane="best" from="-537300954#0" to="-779730403#0"/>
    <trip id="veh37" type="veh_passenger" depart="80.79" departLane="best" from="-1155674645#3" to="1147590431"/>
    <trip id="veh38" type="veh_passenger" depart="82.98" departLane="best" from="-1153435230#2" to="929201570#0"/>
    <trip id="veh39" type="veh_passenger" depart="85.16" departLane="best" departSpeed="max" from="-392163930#2" to="38316093#6"/>
    <trip id="veh40" type="veh_passenger" depart="87.35" departLane="best" from="470910593#2" to="537302256"/>
    <trip id="veh41" type="veh_passenger" depart="89.53" departLane="best" from="1152834968" to="59150651"/>
    <trip id="veh42" type="veh_passenger" depart="91.71" departLane="best" from="537470173#1" to="-392180098#0"/>
    <trip id="veh43" type="veh_passenger" depart="93.90" departLane="best" departSpeed="max" from="-775445567#2" to="-537452100#4"/>
    <trip id="veh44" type="veh_passenger" depart="96.08" departLane="best" from="-102532327" to="537302256"/>
    <trip id="veh45" type="veh_passenger" depart="98.26" departLane="best" from="-470910602" to="-537302255#1"/>
    <trip id="veh46" type="veh_passenger" depart="100.45" departLane="best" from="-1155674645#4" to="556954298"/>
    <trip id="veh47" type="veh_passenger" depart="102.63" departLane="best" from="-537470147#1" to="392180102#0"/>
    <trip id="veh48" type="veh_passenger" depart="104.81" departLane="best" from="-470910592#1" to="-469348626#1"/>
    <trip id="veh49" type="veh_passenger" depart="107.00" departLane="best" from="537302268" to="554658422"/>
    <trip id="veh50" type="veh_passenger" depart="109.18" departLane="best" from="537300961" to="-392180102#2"/>
    <trip id="veh51" type="veh_passenger" depart="111.37" departLane="best" from="537301350" to="556954298"/>
    <trip id="veh52" type="veh_passenger" depart="113.55" departLane="best" departSpeed="max" from="537473695" to="-779730403#3"/>
    <trip id="veh53" type="veh_passenger" depart="115.73" departLane="best" departSpeed="max" from="537302255#0" to="392180105#0"/>
    <trip id="veh54" type="veh_passenger" depart="117.92" departLane="best" from="-537470147#2" to="554658422"/>
    <trip id="veh55" type="veh_passenger" depart="120.10" departLane="best" departSpeed="max" from="779730403#0" to="537452101"/>
    <trip id="veh56" type="veh_passenger" depart="122.28" departLane="best" from="779730403#1" to="-537277440"/>
    <trip id="veh57" type="veh_passenger" depart="124.47" departLane="best" from="-775445567#1" to="-537302259"/>
    <trip id="veh58" type="veh_passenger" depart="126.65" departLane="best" from="-59150654#0" to="392180099#1"/>
    <trip id="veh59" type="veh_passenger" depart="128.83" departLane="best" from="537300949#0" to="495344601"/>
    <trip id="veh60" type="veh_passenger" depart="131.02" departLane="best" departSpeed="max" from="-554658422" to="-38316093#0"/>
    <trip id="veh61" type="veh_passenger" depart="133.20" departLane="best" departSpeed="max" from="-537453286#2" to="-837535482#3"/>
    <trip id="veh62" type="veh_passenger" depart="135.39" departLane="best" from="772657041" to="495344601"/>
    <trip id="veh63" type="veh_passenger" depart="137.57" departLane="best" from="-537452104#2" to="38139657"/>
    <trip id="veh64" type="veh_passenger" depart="139.75" departLane="best" from="-102532327" to="-537453285#3"/>
    <trip id="veh65" type="veh_passenger" depart="141.94" departLane="best" from="470910593#1" to="-537473695"/>
    <trip id="veh66" type="veh_passenger" depart="144.12" departLane="best" from="494317218" to="-537300954#2"/>
    <trip id="veh67" type="veh_passenger" depart="146.30" departLane="best" from="-507449298#0" to="-537280230#1"/>
    <trip id="veh68" type="veh_passenger" depart="148.49" departLane="best" from="474484313" to="-1147590432#0"/>
    <trip id="veh69" type="veh_passenger" depart="150.67" departLane="best" departSpeed="max" from="-392163930#2" to="102532327"/>
    <trip id="veh70" type="veh_passenger" depart="152.85" departLane="best" departSpeed="max" from="-476450015" to="775445567#2"/>
    <trip id="veh71" type="veh_passenger" depart="155.04" departLane="best" departSpeed="max" from="494317217#0" to="901171523"/>
    <trip id="veh72" type="veh_passenger" depart="157.22" departLane="best" from="537470141#4" to="38139657"/>
    <trip id="veh73" type="veh_passenger" depart="159.41" departLane="best" from="537300959#1" to="470910615#0"/>
    <trip id="veh74" type="veh_passenger" depart="161.59" departLane="best" from="-1212916640#1" to="470910602"/>
    <trip id="veh75" type="veh_passenger" depart="163.77" departLane="best" departSpeed="max" from="-775445567#2" to="59150649"/>
    <trip id="veh76" type="veh_passenger" depart="165.96" departLane="best" from="392180098#1" to="507449298#1"/>
    <trip id="veh77" type="veh_passenger" depart="168.14" departLane="best" departSpeed="max" from="537472171" to="775445567#1"/>
    <trip id="veh78" type="veh_passenger" depart="170.32" departLane="best" departSpeed="max" from="-775445567#2" to="-537300959#2"/>
    <trip id="veh79" type="veh_passenger" depart="172.51" departLane="best" from="37395951#0" to="42007093#1"/>
    <trip id="veh80" type="veh_passenger" depart="174.69" departLane="best" from="-775445567#0" to="-494317217#0"/>
    <trip id="veh81" type="veh_passenger" depart="176.87" departLane="best" from="-42007093#0" to="1147590432#2"/>
    <trip id="veh82" type="veh_passenger" depart="179.06" departLane="best" departSpeed="max" from="-1153435230#5" to="775445564#0"/>
    <trip id="veh83" type="veh_passenger" depart="181.24" departLane="best" departSpeed="max" from="537300960#0" to="775445564#0"/>
    <trip id="veh84" type="veh_passenger" depart="183.43" departLane="best" from="-775445564#0" to="-537299509#1"/>
    <trip id="veh85" type="veh_passenger" depart="185.61" departLane="best" from="-1147590432#1" to="-474484309"/>
    <trip id="veh86" type="veh_passenger" depart="187.79" departLane="best" from="470910613#2" to="468467130#3"/>
    <trip id="veh87" type="veh_passenger" depart="189.98" departLane="best" from="537455165" to="775445567#2"/>
    <trip id="veh88" type="veh_passenger" depart="192.16" departLane="best" from="-392180092#2" to="1152870121#3"/>
    <trip id="veh89" type="veh_passenger" depart="194.34" departLane="best" from="-537453287#1" to="495344601"/>
    <trip id="veh90" type="veh_passenger" depart="196.53" departLane="best" from="-537470175#0" to="42007093#1"/>
    <trip id="veh91" type="veh_passenger" depart="198.71" departLane="best" from="-537301351#3" to="-589957698"/>
    <trip id="veh92" type="veh_passenger" depart="200.89" departLane="best" from="1154683684#3" to="-556954298"/>
    <trip id="veh93" type="veh_passenger" depart="203.08" departLane="best" departSpeed="max" from="-392163930#2" to="775445567#2"/>
    <trip id="veh94" type="veh_passenger" depart="205.26" departLane="best" from="-470910599" to="537470149"/>
    <trip id="veh95" type="veh_passenger" depart="207.45" departLane="best" from="537470175#1" to="537280230#2"/>
    <trip id="veh96" type="veh_passenger" depart="209.63" departLane="best" departSpeed="max" from="-1147590427" to="775445566"/>
    <trip id="veh97" type="veh_passenger" depart="211.81" departLane="best" from="392180092#4" to="1152870121#0"/>
    <trip id="veh98" type="veh_passenger" depart="214.00" departLane="best" departSpeed="max" from="-537302267#2" to="392180101#3"/>
    <trip id="veh99" type="veh_passenger" depart="216.18" departLane="best" from="507449296#1" to="-469348626#1"/>
    <trip id="veh100" type="veh_passenger" depart="218.36" departLane="best" departSpeed="max" from="-1153435230#5" to="470910615#0"/>
    <trip id="veh101" type="veh_passenger" depart="220.55" departLane="best" from="929201567#3" to="-468973158#0"/>
    <trip id="veh102" type="veh_passenger" depart="222.73" departLane="best" from="1155674645#4" to="1147590430"/>
    <trip id="veh103" type="veh_passenger" depart="224.91" departLane="best" from="-929201562#2" to="554658422"/>
    <trip id="veh104" type="veh_passenger" depart="227.10" departLane="best" departSpeed="max" from="929201567#0" to="537470147#0"/>
    <trip id="veh105" type="veh_passenger" depart="229.28" departLane="best" from="537299519" to="775445564#3"/>
    <trip id="veh106" type="veh_passenger" depart="231.47" departLane="best" from="-102532327" to="1147590430"/>
    <trip id="veh107" type="veh_passenger" depart="233.65" departLane="best" from="392180102#2" to="-537455165"/>
    <trip id="veh108" type="veh_passenger" depart="235.83" departLane="best" departSpeed="max" from="495344597" to="618443493#0"/>
    <trip id="veh109" type="veh_passenger" depart="238.02" departLane="best" departSpeed="max" from="537302255#0" to="470910605#2"/>
    <trip id="veh110" type="veh_passenger" depart="240.20" departLane="best" from="-470910615#0" to="59150651"/>
    <trip id="veh111" type="veh_passenger" depart="242.38" departLane="best" from="-537300953#1" to="392180092#1"/>
    <trip id="veh112" type="veh_passenger" depart="244.57" departLane="best" departSpeed="max" from="495344597" to="-537280230#7"/>
    <trip id="veh113" type="veh_passenger" depart="246.75" departLane="best" from="-1153435230#2" to="102532334#1"/>
    <trip id="veh114" type="veh_passenger" depart="248.93" departLane="best" from="-38137805" to="775445567#2"/>
    <trip id="veh115" type="veh_passenger" depart="251.12" departLane="best" from="-537470152#0" to="392180098#2"/>
    <trip id="veh116" type="veh_passenger" depart="253.30" departLane="best" from="-775445564#0" to="98440838"/>
    <trip id="veh117" type="veh_passenger" depart="255.49" departLane="best" from="494317218" to="-537302269"/>
    <trip id="veh118" type="veh_passenger" depart="257.67" departLane="best" departSpeed="max" from="59150658#0" to="537280230#2"/>
    <trip id="veh119" type="veh_passenger" depart="259.85" departLane="best" departSpeed="max" from="494317217#0" to="537470176"/>
    <trip id="veh120" type="veh_passenger" depart="262.04" departLane="best" from="537452098#1" to="775445564#2"/>
    <trip id="veh121" type="veh_passenger" depart="264.22" departLane="best" from="537470141#4" to="775445567#2"/>
    <trip id="veh122" type="veh_passenger" depart="266.40" departLane="best" departSpeed="max" from="929201567#0" to="480013005"/>
    <trip id="veh123" type="veh_passenger" depart="268.59" departLane="best" from="37394396" to="-929201567#0"/>
    <trip id="veh124" type="veh_passenger" depart="270.77" departLane="best" from="537300957#1" to="470910605#2"/>
    <trip id="veh125" type="veh_passenger" depart="272.95" departLane="best" from="-470910609#0" to="38316093#4"/>
    <trip id="veh126" type="veh_passenger" depart="275.14" departLane="best" from="929201567#1" to="59150731#0"/>
    <trip id="veh127" type="veh_passenger" depart="277.32" departLane="best" from="-537470144#1" to="1155674645#0"/>
    <trip id="veh128" type="veh_passenger" depart="279.50" departLane="best" from="37395951#2" to="775445564#3"/>
    <trip id="veh129" type="veh_passenger" depart="281.69" departLane="best" from="507449293#0" to="554658422"/>
    <trip id="veh130" type="veh_passenger" depart="283.87" departLane="best" from="-392180099#1" to="98440838"/>
    <trip id="veh131" type="veh_passenger" depart="286.06" departLane="best" from="-1212916640#1" to="-589957698"/>
    <trip id="veh132" type="veh_passenger" depart="288.24" departLane="best" from="-495344591" to="-537280230#4"/>
    <trip id="veh133" type="veh_passenger" depart="290.42" departLane="best" departSpeed="max" from="38316104#0" to="-537300960#0"/>
    <trip id="veh134" type="veh_passenger" depart="292.61" departLane="best" from="537301346#4" to="-1155674645#1"/>
    <trip id="veh135" type="veh_passenger" depart="294.79" departLane="best" from="-1152870121#6" to="1155674645#1"/>
    <trip id="veh136" type="veh_passenger" depart="296.97" departLane="best" departSpeed="max" from="1155674648#0" to="1147590431"/>
    <trip id="veh137" type="veh_passenger" depart="299.16" departLane="best" from="537299507#3" to="929201562#1"/>
    <trip id="veh138" type="veh_passenger" depart="301.34" departLane="best" from="-470910590#0" to="1212916640#2"/>
    <trip id="veh139" type="veh_passenger" depart="303.52" departLane="best" from="-470910615#1" to="-38316104#0"/>
    <trip id="veh140" type="veh_passenger" depart="305.71" departLane="best" departSpeed="max" from="589957698" to="495344601"/>
    <trip id="veh141" type="veh_passenger" depart="307.89" departLane="best" departSpeed="max" from="-537470166" to="-392180104#3"/>
    <trip id="veh142" type="veh_passenger" depart="310.08" departLane="best" from="537280230#7" to="775445564#3"/>
    <trip id="veh143" type="veh_passenger" depart="312.26" departLane="best" departSpeed="max" from="38316104#0" to="392180098#2"/>
    <trip id="veh144" type="veh_passenger" depart="314.44" departLane="best" from="929201567#2" to="-537470134#0"/>
    <trip id="veh145" type="veh_passenger" depart="316.63" departLane="best" departSpeed="max" from="495344597" to="537300957#0"/>
    <trip id="veh146" type="veh_passenger" depart="318.81" departLane="best" from="495344594" to="537299513"/>
    <trip id="veh147" type="veh_passenger" depart="320.99" departLane="best" from="-479980580#1" to="537470155"/>
    <trip id="veh148" type="veh_passenger" depart="323.18" departLane="best" from="470910613#2" to="537470152#1"/>
    <trip id="veh149" type="veh_passenger" depart="325.36" departLane="best" from="537299514" to="-392180092#3"/>
    <trip id="veh150" type="veh_passenger" depart="327.54" departLane="best" departSpeed="max" from="-476450015" to="-470910592#0"/>
    <trip id="veh151" type="veh_passenger" depart="329.73" departLane="best" from="1212916640#1" to="775445567#2"/>
    <trip id="veh152" type="veh_passenger" depart="331.91" departLane="best" departSpeed="max" from="-537470155" to="392180106#3"/>
    <trip id="veh153" type="veh_passenger" depart="334.10" departLane="best" departSpeed="max" from="779730403#0" to="554658422"/>
    <trip id="veh154" type="veh_passenger" depart="336.28" departLane="best" departSpeed="max" from="779730403#0" to="537453286#1"/>
    <trip id="veh155" type="veh_passenger" depart="338.46" departLane="best" from="537470132#2" to="775445562"/>
    <trip id="veh156" type="veh_passenger" depart="340.65" departLane="best" from="-392180092#2" to="-537300960#0"/>
    <trip id="veh157" type="veh_passenger" depart="342.83" departLane="best" from="-1148725358" to="556954298"/>
    <trip id="veh158" type="veh_passenger" depart="345.01" departLane="best" from="-537453285#2" to="-837535482#3"/>
    <trip id="veh159" type="veh_passenger" depart="347.20" departLane="best" departSpeed="max" from="-42007093#3" to="775445564#3"/>
    <trip id="veh160" type="veh_passenger" depart="349.38" departLane="best" from="-42007093#0" to="1147590430"/>
    <trip id="veh161" type="veh_passenger" depart="351.56" departLane="best" departSpeed="max" from="494317217#0" to="537300956"/>
    <trip id="veh162" type="veh_passenger" depart="353.75" departLane="best" from="775219811" to="-929201567#2"/>
    <trip id="veh163" type="veh_passenger" depart="355.93" departLane="best" from="-775445564#1" to="-1154683684#0"/>
    <trip id="veh164" type="veh_passenger" depart="358.12" departLane="best" from="-775445564#0" to="537470175#0"/>
    <trip id="veh165" type="veh_passenger" depart="360.30" departLane="best" from="-537470176" to="-779730403#1"/>
    <trip id="veh166" type="veh_passenger" depart="362.48" departLane="best" from="495352112" to="-469348622#1"/>
    <trip id="veh167" type="veh_passenger" depart="364.67" departLane="best" from="-392180104#3" to="392163930#0"/>
    <trip id="veh168" type="veh_passenger" depart="366.85" departLane="best" from="-1155674645#2" to="537301351#1"/>
    <trip id="veh169" type="veh_passenger" depart="369.03" departLane="best" from="470910592#0" to="59150647#1"/>
    <trip id="veh170" type="veh_passenger" depart="371.22" departLane="best" from="-468973158#2" to="-470910590#0"/>
    <trip id="veh171" type="veh_passenger" depart="373.40" departLane="best" departSpeed="max" from="-476450015" to="-1155674645#3"/>
    <trip id="veh172" type="veh_passenger" depart="375.58" departLane="best" from="537301348#1" to="-1155674645#4"/>
    <trip id="veh173" type="veh_passenger" depart="377.77" departLane="best" from="1155674645#3" to="1147590431"/>
    <trip id="veh174" type="veh_passenger" depart="379.95" departLane="best" from="1148725358" to="-779730403#6"/>
    <trip id="veh175" type="veh_passenger" depart="382.14" departLane="best" departSpeed="max" from="495344597" to="1153435230#3"/>
    <trip id="veh176" type="veh_passenger" depart="384.32" departLane="best" from="-1155674645#2" to="-537452100#2"/>
    <trip id="veh177" type="veh_passenger" depart="386.50" departLane="best" from="470910593#1" to="38316093#1"/>
    <trip id="veh178" type="veh_passenger" depart="388.69" departLane="best" from="-537470144#1" to="929201569"/>
    <trip id="veh179" type="veh_passenger" depart="390.87" departLane="best" from="1155674648#0-AddedOffRampEdge" to="1147590430"/>
    <trip id="veh180" type="veh_passenger" depart="393.05" departLane="best" from="102532327" to="-537300957#0"/>
    <trip id="veh181" type="veh_passenger" depart="395.24" departLane="best" departSpeed="max" from="-775445567#2" to="102532334#0"/>
    <trip id="veh182" type="veh_passenger" depart="397.42" departLane="best" from="-537470144#0" to="-392180098#1"/>
    <trip id="veh183" type="veh_passenger" depart="399.60" departLane="best" from="392180099#1" to="38316639"/>
    <trip id="veh184" type="veh_passenger" depart="401.79" departLane="best" from="-392180092#2" to="537470166"/>
    <trip id="veh185" type="veh_passenger" depart="403.97" departLane="best" from="537470173#0" to="-779730403#1"/>
    <trip id="veh186" type="veh_passenger" depart="406.16" departLane="best" from="537453287#1" to="-470910590#0"/>
    <trip id="veh187" type="veh_passenger" depart="408.34" departLane="best" from="618443486" to="537470149"/>
    <trip id="veh188" type="veh_passenger" depart="410.52" departLane="best" from="-470910593#1" to="98440838"/>
    <trip id="veh189" type="veh_passenger" depart="412.71" departLane="best" departSpeed="max" from="-775445567#2" to="-556954298"/>
    <trip id="veh190" type="veh_passenger" depart="414.89" departLane="best" from="-1212916640#0" to="-1155674645#3"/>
    <trip id="veh191" type="veh_passenger" depart="417.07" departLane="best" from="-479980585#3" to="1153435230#3"/>
    <trip id="veh192" type="veh_passenger" depart="419.26" departLane="best" from="537300956" to="-392180106#2"/>
    <trip id="veh193" type="veh_passenger" depart="421.44" departLane="best" from="779730403#1" to="-537452104#1"/>
    <trip id="veh194" type="veh_passenger" depart="423.62" departLane="best" from="495344594" to="1153435230#3"/>
    <trip id="veh195" type="veh_passenger" depart="425.81" departLane="best" departSpeed="max" from="494317217#0" to="1155674645#1"/>
    <trip id="veh196" type="veh_passenger" depart="427.99" departLane="best" from="775445564#0" to="42007093#1"/>
    <trip id="veh197" type="veh_passenger" depart="430.18" departLane="best" from="537299507#3" to="-470910594"/>
    <trip id="veh198" type="veh_passenger" depart="432.36" departLane="best" departSpeed="max" from="-476450015" to="775445564#1"/>
    <trip id="veh199" type="veh_passenger" depart="434.54" departLane="best" departSpeed="max" from="537277440" to="1155674645#0"/>
    <trip id="veh200" type="veh_passenger" depart="436.73" departLane="best" from="-59150731#1" to="554658422"/>
    <trip id="veh201" type="veh_passenger" depart="438.91" departLane="best" from="38316111#0" to="392180098#0"/>
    <trip id="veh202" type="veh_passenger" depart="441.09" departLane="best" from="537280230#5" to="-929201567#1"/>
    <trip id="veh203" type="veh_passenger" depart="443.28" departLane="best" from="59150658#1" to="392180092#0"/>
    <trip id="veh204" type="veh_passenger" depart="445.46" departLane="best" from="537470132#1" to="-589957698"/>
    <trip id="veh205" type="veh_passenger" depart="447.64" departLane="best" from="-392180105#3" to="-537301347"/>
    <trip id="veh206" type="veh_passenger" depart="449.83" departLane="best" from="38316093#3" to="-470910614#0"/>
    <trip id="veh207" type="veh_passenger" depart="452.01" departLane="best" departSpeed="max" from="469348626#0" to="-470910615#2"/>
    <trip id="veh208" type="veh_passenger" depart="454.20" departLane="best" from="1154683684#2" to="-1155674645#2"/>
    <trip id="veh209" type="veh_passenger" depart="456.38" departLane="best" departSpeed="max" from="537472171" to="470910592#0"/>
    <trip id="veh210" type="veh_passenger" depart="458.56" departLane="best" from="-1155674645#0" to="-1147590432#3"/>
    <trip id="veh211" type="veh_passenger" depart="460.75" departLane="best" departSpeed="max" from="589957698" to="1147590430"/>
    <trip id="veh212" type="veh_passenger" depart="462.93" departLane="best" from="470910593#2" to="1212916640#0"/>
    <trip id="veh213" type="veh_passenger" depart="465.11" departLane="best" from="837535482#2" to="1163023881"/>
    <trip id="veh214" type="veh_passenger" depart="467.30" departLane="best" departSpeed="max" from="-537302267#2" to="-837535482#3"/>
    <trip id="veh215" type="veh_passenger" depart="469.48" departLane="best" departSpeed="max" from="-537470155" to="407710333"/>
    <trip id="veh216" type="veh_passenger" depart="471.66" departLane="best" from="537299507#4" to="-479980585#4"/>
    <trip id="veh217" type="veh_passenger" depart="473.85" departLane="best" from="-537470152#0" to="392180102#0"/>
    <trip id="veh218" type="veh_passenger" depart="476.03" departLane="best" from="-468973156#1" to="-589957698"/>
    <trip id="veh219" type="veh_passenger" depart="478.22" departLane="best" departSpeed="max" from="779730403#0" to="-537280230#6"/>
    <trip id="veh220" type="veh_passenger" depart="480.40" departLane="best" from="537453285#0" to="495344601"/>
    <trip id="veh221" type="veh_passenger" depart="482.58" departLane="best" departSpeed="max" from="495344597" to="1177183910"/>
    <trip id="veh222" type="veh_passenger" depart="484.77" departLane="best" departSpeed="max" from="-554658422" to="-59150649"/>
    <trip id="veh223" type="veh_passenger" depart="486.95" departLane="best" departSpeed="max" from="-1163023881" to="537470166"/>
    <trip id="veh224" type="veh_passenger" depart="489.13" departLane="best" from="-537470147#2" to="556954298"/>
    <trip id="veh225" type="veh_passenger" depart="491.32" departLane="best" from="537300961" to="-470910590#1"/>
    <trip id="veh226" type="veh_passenger" depart="493.50" departLane="best" from="537452103" to="-494317217#0"/>
    <trip id="veh227" type="veh_passenger" depart="495.68" departLane="best" from="495344593" to="-537300960#1"/>
    <trip id="veh228" type="veh_passenger" depart="497.87" departLane="best" from="-929201567#1" to="537453285#0"/>
    <trip id="veh229" type="veh_passenger" depart="500.05" departLane="best" departSpeed="max" from="779730403#0" to="-537470134#1"/>